McPAT (version 1.4 of March, 2021) is computing the target processor...
 

McPAT (version 1.4 of March, 2021) results (current print level is 1, please increase print level to see the details in components): 
*****************************************************************************************
  Technology 40 nm
  Interconnect metal projection= aggressive interconnect technology projection
  Core clock Rate(MHz) 5

*****************************************************************************************
Processor: 
  Area = 0.650449 mm^2
  Peak Power = 0.344995 W
  Total Leakage = 0.343297 W
  Peak Dynamic = 0.00169872 W
  Subthreshold Leakage = 0.305365 W
  Gate Leakage = 0.0379315 W
  Runtime Dynamic = 0.000136335 W

  Total Cores: 17 cores 
  Device Type= ITRS high performance device type
    Area = 0.595337 mm^2
    Peak Dynamic = 0.00147299 W
    Subthreshold Leakage = 0.299762 W
    Gate Leakage = 0.0371057 W
    Runtime Dynamic = 7.87256e-05 W

  Total L3s: 
  Device Type= ITRS high performance device type
    Area = 0.016003 mm^2
    Peak Dynamic = 0.000106266 W
    Subthreshold Leakage = 0.00259193 W
    Gate Leakage = 0.000345444 W
    Runtime Dynamic = 4.26762e-05 W

  Total NoCs (Network/Bus): 
  Device Type= ITRS high performance device type
    Area = 0.0391092 mm^2
    Peak Dynamic = 0.000119465 W
    Subthreshold Leakage = 0.00301135 W
    Gate Leakage = 0.000480396 W
    Runtime Dynamic = 1.49331e-05 W

*****************************************************************************************
